instances/data_GOC/Phase_0_Modified_RTS96/scenario_84/powersystem.raw
 0,  100.000000
rts96_spring_wday.raw / File written by to_psse.gms
5 / 19 / 2015
101, ' 101 ',138,2,1,1,1,1.00,0.00,1.1,0.9,1.1,0.9
102, ' 102 ',138,2,1,1,1,1.00,0.00,1.1,0.9,1.1,0.9
103, ' 103 ',138,1,1,1,1,1.00,0.00,1.1,0.9,1.1,0.9
104, ' 104 ',138,1,1,1,1,1.00,0.00,1.1,0.9,1.1,0.9
105, ' 105 ',138,1,1,1,1,1.00,0.00,1.1,0.9,1.1,0.9
106, ' 106 ',138,1,1,1,1,1.00,0.00,1.1,0.9,1.1,0.9
107, ' 107 ',138,2,1,1,1,1.00,0.00,1.1,0.9,1.1,0.9
108, ' 108 ',138,1,1,1,1,1.00,0.00,1.1,0.9,1.1,0.9
109, ' 109 ',138,1,1,1,1,1.00,0.00,1.1,0.9,1.1,0.9
110, ' 110 ',138,1,1,1,1,1.00,0.00,1.1,0.9,1.1,0.9
111, ' 111 ',230,1,1,1,1,1.00,0.00,1.1,0.9,1.1,0.9
112, ' 112 ',230,1,1,1,1,1.00,0.00,1.1,0.9,1.1,0.9
113, ' 113 ',230,3,1,1,1,1.00,0.00,1.1,0.9,1.1,0.9
114, ' 114 ',230,2,1,1,1,1.00,0.00,1.1,0.9,1.1,0.9
115, ' 115 ',230,2,1,1,1,1.00,0.00,1.1,0.9,1.1,0.9
116, ' 116 ',230,2,1,1,1,1.00,0.00,1.1,0.9,1.1,0.9
117, ' 117 ',230,1,1,1,1,1.00,0.00,1.1,0.9,1.1,0.9
118, ' 118 ',230,2,1,1,1,1.00,0.00,1.1,0.9,1.1,0.9
119, ' 119 ',230,1,1,1,1,1.00,0.00,1.1,0.9,1.1,0.9
120, ' 120 ',230,1,1,1,1,1.00,0.00,1.1,0.9,1.1,0.9
121, ' 121 ',230,2,1,1,1,1.00,0.00,1.1,0.9,1.1,0.9
122, ' 122 ',230,2,1,1,1,1.00,0.00,1.1,0.9,1.1,0.9
123, ' 123 ',230,2,1,1,1,1.00,0.00,1.1,0.9,1.1,0.9
124, ' 124 ',230,1,1,1,1,1.00,0.00,1.1,0.9,1.1,0.9
201, ' 201 ',138,2,1,1,1,1.00,0.00,1.1,0.9,1.1,0.9
202, ' 202 ',138,2,1,1,1,1.00,0.00,1.1,0.9,1.1,0.9
203, ' 203 ',138,1,1,1,1,1.00,0.00,1.1,0.9,1.1,0.9
204, ' 204 ',138,1,1,1,1,1.00,0.00,1.1,0.9,1.1,0.9
205, ' 205 ',138,1,1,1,1,1.00,0.00,1.1,0.9,1.1,0.9
206, ' 206 ',138,1,1,1,1,1.00,0.00,1.1,0.9,1.1,0.9
207, ' 207 ',138,2,1,1,1,1.00,0.00,1.1,0.9,1.1,0.9
208, ' 208 ',138,1,1,1,1,1.00,0.00,1.1,0.9,1.1,0.9
209, ' 209 ',138,1,1,1,1,1.00,0.00,1.1,0.9,1.1,0.9
210, ' 210 ',138,1,1,1,1,1.00,0.00,1.1,0.9,1.1,0.9
211, ' 211 ',230,1,1,1,1,1.00,0.00,1.1,0.9,1.1,0.9
212, ' 212 ',230,1,1,1,1,1.00,0.00,1.1,0.9,1.1,0.9
213, ' 213 ',230,2,1,1,1,1.00,0.00,1.1,0.9,1.1,0.9
214, ' 214 ',230,2,1,1,1,1.00,0.00,1.1,0.9,1.1,0.9
215, ' 215 ',230,2,1,1,1,1.00,0.00,1.1,0.9,1.1,0.9
216, ' 216 ',230,2,1,1,1,1.00,0.00,1.1,0.9,1.1,0.9
217, ' 217 ',230,1,1,1,1,1.00,0.00,1.1,0.9,1.1,0.9
218, ' 218 ',230,2,1,1,1,1.00,0.00,1.1,0.9,1.1,0.9
219, ' 219 ',230,1,1,1,1,1.00,0.00,1.1,0.9,1.1,0.9
220, ' 220 ',230,1,1,1,1,1.00,0.00,1.1,0.9,1.1,0.9
221, ' 221 ',230,2,1,1,1,1.00,0.00,1.1,0.9,1.1,0.9
222, ' 222 ',230,2,1,1,1,1.00,0.00,1.1,0.9,1.1,0.9
223, ' 223 ',230,2,1,1,1,1.00,0.00,1.1,0.9,1.1,0.9
224, ' 224 ',230,1,1,1,1,1.00,0.00,1.1,0.9,1.1,0.9
301, ' 301 ',138,2,1,1,1,1.00,0.00,1.1,0.9,1.1,0.9
302, ' 302 ',138,2,1,1,1,1.00,0.00,1.1,0.9,1.1,0.9
303, ' 303 ',138,1,1,1,1,1.00,0.00,1.1,0.9,1.1,0.9
304, ' 304 ',138,1,1,1,1,1.00,0.00,1.1,0.9,1.1,0.9
305, ' 305 ',138,1,1,1,1,1.00,0.00,1.1,0.9,1.1,0.9
306, ' 306 ',138,1,1,1,1,1.00,0.00,1.1,0.9,1.1,0.9
307, ' 307 ',138,2,1,1,1,1.00,0.00,1.1,0.9,1.1,0.9
308, ' 308 ',138,1,1,1,1,1.00,0.00,1.1,0.9,1.1,0.9
309, ' 309 ',138,1,1,1,1,1.00,0.00,1.1,0.9,1.1,0.9
310, ' 310 ',138,1,1,1,1,1.00,0.00,1.1,0.9,1.1,0.9
311, ' 311 ',230,1,1,1,1,1.00,0.00,1.1,0.9,1.1,0.9
312, ' 312 ',230,1,1,1,1,1.00,0.00,1.1,0.9,1.1,0.9
313, ' 313 ',230,2,1,1,1,1.00,0.00,1.1,0.9,1.1,0.9
314, ' 314 ',230,2,1,1,1,1.00,0.00,1.1,0.9,1.1,0.9
315, ' 315 ',230,2,1,1,1,1.00,0.00,1.1,0.9,1.1,0.9
316, ' 316 ',230,2,1,1,1,1.00,0.00,1.1,0.9,1.1,0.9
317, ' 317 ',230,1,1,1,1,1.00,0.00,1.1,0.9,1.1,0.9
318, ' 318 ',230,2,1,1,1,1.00,0.00,1.1,0.9,1.1,0.9
319, ' 319 ',230,1,1,1,1,1.00,0.00,1.1,0.9,1.1,0.9
320, ' 320 ',230,1,1,1,1,1.00,0.00,1.1,0.9,1.1,0.9
321, ' 321 ',230,2,1,1,1,1.00,0.00,1.1,0.9,1.1,0.9
322, ' 322 ',230,2,1,1,1,1.00,0.00,1.1,0.9,1.1,0.9
323, ' 323 ',230,2,1,1,1,1.00,0.00,1.1,0.9,1.1,0.9
324, ' 324 ',230,1,1,1,1,1.00,0.00,1.1,0.9,1.1,0.9
325, ' 325 ',230,1,1,1,1,1.00,0.00,1.1,0.9,1.1,0.9
0 / END OF BUS DATA, BEGIN LOAD DATA
101, '1 ',1,11,11,75.62935713446383,18.32710394869661,0.0,0.0,0.0,0.0,1,1,0
102, '1 ',1,11,12,71.99569134604062,15.178420610862783,0.0,0.0,0.0,0.0,1,1,0
103, '1 ',1,11,11,87.62465930573455,26.07554834219129,0.0,0.0,0.0,0.0,1,1,0
104, '1 ',1,11,11,56.26288695492194,11.369150572278304,0.0,0.0,0.0,0.0,1,1,0
105, '1 ',1,11,11,54.996116245812466,11.826160540640819,0.0,0.0,0.0,0.0,1,1,0
106, '1 ',1,11,12,73.40309098830409,23.40036581632197,0.0,0.0,0.0,0.0,1,1,0
107, '1 ',1,11,12,86.91384555943078,19.34795232725912,0.0,0.0,0.0,0.0,1,1,0
108, '1 ',1,11,12,151.55689089208946,21.179766753745497,0.0,0.0,0.0,0.0,1,1,0
109, '1 ',1,11,13,115.70236216329388,27.91975478611663,0.0,0.0,0.0,0.0,1,1,0
110, '1 ',1,11,13,121.7958834647478,26.767664642482995,0.0,0.0,0.0,0.0,1,1,0
111, '1 ',1,11,13,0.0,0.0,0.0,0.0,0.0,0.0,1,1,0
112, '1 ',1,11,13,0.0,0.0,0.0,0.0,0.0,0.0,1,1,0
113, '1 ',1,12,14,235.31989997468915,47.59906362296026,0.0,0.0,0.0,0.0,1,1,0
114, '1 ',1,12,16,160.56341202179846,22.860150469638317,0.0,0.0,0.0,0.0,1,1,0
115, '1 ',1,12,16,237.44927350300233,52.69553306795954,0.0,0.0,0.0,0.0,1,1,0
116, '1 ',1,12,16,74.96748805954121,14.63343672781717,0.0,0.0,0.0,0.0,1,1,0
117, '1 ',1,12,17,0.0,0.0,0.0,0.0,0.0,0.0,1,1,0
118, '1 ',1,12,17,182.000639082963,49.776253132689,0.0,0.0,0.0,0.0,1,1,0
119, '1 ',1,12,15,140.73924030022576,25.73358337946897,0.0,0.0,0.0,0.0,1,1,0
120, '1 ',1,12,15,91.17026137418746,16.161587169626912,0.0,0.0,0.0,0.0,1,1,0
121, '1 ',1,12,17,0.0,0.0,0.0,0.0,0.0,0.0,1,1,0
122, '1 ',1,12,17,0.0,0.0,0.0,0.0,0.0,0.0,1,1,0
123, '1 ',1,12,15,0.0,0.0,0.0,0.0,0.0,0.0,1,1,0
124, '1 ',1,12,16,0.0,0.0,0.0,0.0,0.0,0.0,1,1,0
201, '1 ',1,21,21,68.60429989254231,17.688376447227785,0.0,0.0,0.0,0.0,1,1,0
202, '1 ',1,21,22,74.79422550883648,10.95613497463893,0.0,0.0,0.0,0.0,1,1,0
203, '1 ',1,21,21,92.54827431033644,20.900939167425502,0.0,0.0,0.0,0.0,1,1,0
204, '1 ',1,21,21,54.049512457964006,10.896041385259943,0.0,0.0,0.0,0.0,1,1,0
205, '1 ',1,21,21,58.48400082777101,9.764702226013318,0.0,0.0,0.0,0.0,1,1,0
206, '1 ',1,21,22,105.8336989659179,14.51347499163039,0.0,0.0,0.0,0.0,1,1,0
207, '1 ',1,21,22,69.78620444271947,18.400540076808536,0.0,0.0,0.0,0.0,1,1,0
208, '1 ',1,21,22,118.80290985814432,18.98807332744519,0.0,0.0,0.0,0.0,1,1,0
209, '1 ',1,21,23,117.38313596706489,19.630292290988937,0.0,0.0,0.0,0.0,1,1,0
210, '1 ',1,21,23,129.76792908466163,25.86009017535299,0.0,0.0,0.0,0.0,1,1,0
211, '1 ',1,21,23,0.0,0.0,0.0,0.0,0.0,0.0,1,1,0
212, '1 ',1,21,23,0.0,0.0,0.0,0.0,0.0,0.0,1,1,0
213, '1 ',1,22,24,201.3692111238877,30.467622608420342,0.0,0.0,0.0,0.0,1,1,0
214, '1 ',1,22,26,168.56426641295403,25.117026333333182,0.0,0.0,0.0,0.0,1,1,0
215, '1 ',1,22,26,246.77660692721366,39.37134709433913,0.0,0.0,0.0,0.0,1,1,0
216, '1 ',1,22,26,70.33362031669357,12.039493323351255,0.0,0.0,0.0,0.0,1,1,0
217, '1 ',1,22,27,0.0,0.0,0.0,0.0,0.0,0.0,1,1,0
218, '1 ',1,22,27,206.80291712562587,49.92539723208211,0.0,0.0,0.0,0.0,1,1,0
219, '1 ',1,22,25,149.17819697138827,25.39852673861221,0.0,0.0,0.0,0.0,1,1,0
220, '1 ',1,22,25,107.33192056408524,16.39859511933038,0.0,0.0,0.0,0.0,1,1,0
221, '1 ',1,22,27,0.0,0.0,0.0,0.0,0.0,0.0,1,1,0
222, '1 ',1,22,27,0.0,0.0,0.0,0.0,0.0,0.0,1,1,0
223, '1 ',1,22,25,0.0,0.0,0.0,0.0,0.0,0.0,1,1,0
224, '1 ',1,22,26,0.0,0.0,0.0,0.0,0.0,0.0,1,1,0
301, '1 ',1,31,31,54.48139985038395,14.306752795001026,0.0,0.0,0.0,0.0,1,1,0
302, '1 ',1,31,32,58.877138189441155,10.75299088265374,0.0,0.0,0.0,0.0,1,1,0
303, '1 ',1,31,31,124.57373900032975,23.785427790900922,0.0,0.0,0.0,0.0,1,1,0
304, '1 ',1,31,31,38.73459660116387,12.067327216495062,0.0,0.0,0.0,0.0,1,1,0
305, '1 ',1,31,31,53.724163024417635,12.355083629180118,0.0,0.0,0.0,0.0,1,1,0
306, '1 ',1,31,32,103.2591250294447,23.269241251044722,0.0,0.0,0.0,0.0,1,1,0
307, '1 ',1,31,32,81.43107297385578,13.089571173246949,0.0,0.0,0.0,0.0,1,1,0
308, '1 ',1,31,32,91.37020669935391,27.20194367778953,0.0,0.0,0.0,0.0,1,1,0
309, '1 ',1,31,33,117.7250823136163,20.671803625874965,0.0,0.0,0.0,0.0,1,1,0
310, '1 ',1,31,33,151.4010682491786,28.686637592352927,0.0,0.0,0.0,0.0,1,1,0
311, '1 ',1,31,33,0.0,0.0,0.0,0.0,0.0,0.0,1,1,0
312, '1 ',1,31,33,0.0,0.0,0.0,0.0,0.0,0.0,1,1,0
313, '1 ',1,32,34,157.50173131062368,28.200408170076734,0.0,0.0,0.0,0.0,1,1,0
314, '1 ',1,32,36,166.32194607453877,22.11821216503135,0.0,0.0,0.0,0.0,1,1,0
315, '1 ',1,32,36,219.36824376827795,43.93078482430279,0.0,0.0,0.0,0.0,1,1,0
316, '1 ',1,32,36,58.91025474518537,9.766286474606952,0.0,0.0,0.0,0.0,1,1,0
317, '1 ',1,32,37,0.0,0.0,0.0,0.0,0.0,0.0,1,1,0
318, '1 ',1,32,37,247.54346221366984,38.5784995512044,0.0,0.0,0.0,0.0,1,1,0
319, '1 ',1,32,35,151.11172663586072,25.350378143965266,0.0,0.0,0.0,0.0,1,1,0
320, '1 ',1,32,35,94.89465043365955,21.911879227190934,0.0,0.0,0.0,0.0,1,1,0
321, '1 ',1,32,37,0.0,0.0,0.0,0.0,0.0,0.0,1,1,0
322, '1 ',1,32,37,0.0,0.0,0.0,0.0,0.0,0.0,1,1,0
323, '1 ',1,32,35,0.0,0.0,0.0,0.0,0.0,0.0,1,1,0
324, '1 ',1,32,36,0.0,0.0,0.0,0.0,0.0,0.0,1,1,0
325, '1 ',1,32,35,0.0,0.0,0.0,0.0,0.0,0.0,1,1,0
0 / END OF LOAD DATA, BEGIN FIXED SHUNT DATA
0 / END OF FIXED SHUNT DATA, BEGIN GENERATOR DATA
101,1,10,0,11.927855279762298,0.6966546205803752,1.035,0,24,0,1,0,0,1,1,100,23.12619324028492,20.09479798407294,1,1,0,1
101,2,10,0,12.644038959406316,5.400084533728659,1.035,0,24,0,1,0,0,1,1,100,24.795600441284478,20.459851608173924,1,1,0,1
101,3,76,14.1,21.018231217749417,-45.09755090274848,1.035,0,89,0,1,0,0,1,1,100,62.820673485286534,10.567143154181537,1,1,0,1
101,4,76,14.1,22.191134062595665,-38.86500564427115,1.035,0,89,0,1,0,0,1,1,100,88.18769313581288,19.626172168925407,1,1,0,1
102,5,10,0,11.940431073773652,4.285686491522938,1.035,0,24,0,1,0,0,1,1,100,23.87817489821464,19.306644374439493,1,1,0,1
102,6,10,0,7.610352335497737,-3.4999676635488868,1.035,0,24,0,1,0,0,1,1,100,19.659168062731624,14.590145663768054,1,1,0,1
102,7,76,7,36.381828021258116,-23.98969504190609,1.035,0,89,0,1,0,0,1,1,100,82.98172778598963,29.886323466524473,1,1,0,1
102,8,76,7,33.30648137815297,-13.463800307363272,1.035,0,89,0,1,0,0,1,1,100,94.05637908689677,15.451341168060893,1,1,0,1
107,9,80,17.2,72.61075584590435,11.315091412514448,1.025,0,118,0,1,0,0,1,1,100,105.34960089251399,18.425451827934012,1,1,0,1
107,10,80,17.2,50.05127737484872,7.759588778950274,1.025,0,118,0,1,0,0,1,1,100,109.57613323815167,48.258933380711824,1,1,0,1
107,11,80,17.2,54.04483822546899,10.882208039984107,1.025,0,118,0,1,0,0,1,1,100,102.13708072435111,28.278127611847594,1,1,0,1
113,12,95.1,40.7,71.67670571058989,-0.06781486049294472,1.02,0,232,0,1,0,0,1,1,100,234.5579633018002,90.18256832376358,1,1,0,1
113,13,95.1,40.7,62.73030805960297,-16.456693321466453,1.02,0,232,0,1,0,0,1,1,100,246.67528698509562,90.6443863859121,1,1,0,1
113,14,95.1,40.7,94.788868162781,32.05488616973162,1.02,0,232,0,1,0,0,1,1,100,237.93637234475466,139.82005783827978,1,1,0,1
114,15,0,13.7,196.55052822083235,-106.25650401460007,0.98,0,100,0,1,0,0,1,1,100,0.0,0.0,1,1,0,1
115,16,12,0,7.468135758675635,2.8925661846064044,1.014,0,14,0,1,0,0,1,1,100,9.0618731752038,1.842729950845242,1,1,0,1
115,17,12,0,5.003746485337615,-1.085482313856482,1.014,0,14,0,1,0,0,1,1,100,14.947510702349247,3.2757922606542724,1,1,0,1
115,18,12,0,6.077662623580545,1.138225724548101,1.014,0,14,0,1,0,0,1,1,100,14.525555393658578,3.1973234131559725,1,1,0,1
115,19,12,0,6.1268629149533815,1.1953910057432964,1.014,0,14,0,1,0,0,1,1,100,11.623376234807075,1.5616996625761421,1,1,0,1
115,20,12,0,4.506109328381717,-2.178269672580063,1.014,0,14,0,1,0,0,1,1,100,14.0185420403257,2.9653088404610735,1,1,0,1
115,21,155,0.05,72.9155854433775,-64.56351634301245,1.014,0,182,0,1,0,0,1,1,100,112.89949069847353,15.118087201775054,1,1,0,1
116,22,155,25.22,66.23789162933826,-38.654377438127995,1.017,0,182,0,1,0,0,1,1,100,142.2993191643618,67.73037382820621,1,1,0,1
118,23,400,137.4,255.4152350593358,-3.8650556164793954,1.05,0,471,0,1,0,0,1,1,100,433.81579648703337,180.47276463359594,1,1,0,1
121,24,400,108.2,240.56146032176912,45.460805369075416,1.05,0,471,0,1,0,0,1,1,100,461.4332495070994,244.10090905614197,1,1,0,1
122,25,50,-4.96,18.407167993485928,-7.781174448970706,1.05,0,53,0,1,0,0,1,1,100,56.510107999201864,21.32493789307773,1,1,0,1
122,26,50,-4.96,12.40572941750288,-15.222966362629087,1.05,0,53,0,1,0,0,1,1,100,49.829079227056354,16.800415899087998,1,1,0,1
122,27,50,-4.96,13.468473942577837,-10.020306430291388,1.05,0,53,0,1,0,0,1,1,100,56.3637897814624,8.904943701345474,1,1,0,1
122,28,50,-4.96,15.98802828192711,-10.766410254035145,1.05,0,53,0,1,0,0,1,1,100,41.015072679147124,22.99311748723544,1,1,0,1
122,29,50,-4.96,12.661336305737494,-12.608393338136375,1.05,0,53,0,1,0,0,1,1,100,48.81784975063056,3.728481971193105,1,1,0,1
122,30,50,-4.96,18.715745735913515,-9.642925091367214,1.05,0,53,0,1,0,0,1,1,100,61.55199002474547,24.354340690188117,1,1,0,1
123,31,155,31.79,70.72085084021091,-95.3509682174772,1.05,0,182,0,1,0,0,1,1,100,184.04572262894362,80.11806391596328,1,1,0,1
123,32,155,31.79,77.84664458408952,-61.81320523517206,1.05,0,182,0,1,0,0,1,1,100,145.33236048347317,51.376817780011336,1,1,0,1
123,33,350,71.78,160.3214519075118,-30.481672913301765,1.05,0,412,0,1,0,0,1,1,100,306.8409219267778,50.24386670207605,1,1,0,1
201,34,10,0,9.977607446722686,2.3368557686917493,1.035,0,24,0,1,0,0,1,1,100,20.00651226937771,15.520364884370938,1,1,0,1
201,35,10,0,9.891037742607296,-0.10494987247511744,1.035,0,24,0,1,0,0,1,1,100,23.521053114905953,18.34159576425329,1,1,0,1
201,36,76,14.1,33.55000192997977,-34.81131694861688,1.035,0,89,0,1,0,0,1,1,100,83.07272863518448,38.72992078717799,1,1,0,1
201,37,76,14.1,21.199351266492158,-24.5561041100882,1.035,0,89,0,1,0,0,1,1,100,53.725087934546174,16.797794223067815,1,1,0,1
202,38,10,0,12.859633949119598,1.4400958120822906,1.035,0,24,0,1,0,0,1,1,100,20.649852056987584,15.551031671473758,1,1,0,1
202,39,10,0,8.172139896079898,-2.0301780374720693,1.035,0,24,0,1,0,0,1,1,100,25.54445656575263,22.491515473462645,1,1,0,1
202,40,76,7,28.6005400121212,-39.72961739380844,1.035,0,89,0,1,0,0,1,1,100,97.25085076671095,23.26704786073418,1,1,0,1
202,41,76,7,35.17839300027117,-4.63721912773326,1.035,0,89,0,1,0,0,1,1,100,89.31878588143736,44.90851193431765,1,1,0,1
207,42,80,17.2,75.49163176584989,5.439417036250234,1.025,0,118,0,1,0,0,1,1,100,98.81113449111581,44.61818996933289,1,1,0,1
207,43,80,17.2,61.853893744759255,4.283559378236532,1.025,0,118,0,1,0,0,1,1,100,118.84207737166435,47.99998933915049,1,1,0,1
207,44,80,17.2,45.68776860460638,-12.398346936330206,1.025,0,118,0,1,0,0,1,1,100,121.17844422813504,29.773946007480816,1,1,0,1
213,45,95.1,40.7,99.82120140269399,37.762603998184204,1.02,0,232,0,1,0,0,1,1,100,211.35663835839367,97.83904013827673,1,1,0,1
213,46,95.1,40.7,99.85260860621929,15.622489280998707,1.02,0,232,0,1,0,0,1,1,100,232.59456125861036,113.59651100962657,1,1,0,1
213,47,95.1,40.7,73.28362587094307,-8.773501519113779,1.02,0,232,0,1,0,0,1,1,100,208.2647299959324,86.5381189944758,1,1,0,1
214,48,0,13.68,258.9533906150609,-0.11795576894655824,0.98,0,100,0,1,0,0,1,1,100,0.0,0.0,1,1,0,1
215,49,12,0,4.602001822739839,-1.439574668370188,1.014,0,14,0,1,0,0,1,1,100,12.982185784354805,5.2916029646247615,1,1,0,1
215,50,12,0,7.5107617151923485,1.1287136524915695,1.014,0,14,0,1,0,0,1,1,100,12.326075786165894,1.8933695511147395,1,1,0,1
215,51,12,0,4.735743472259491,-0.4590650090016428,1.014,0,14,0,1,0,0,1,1,100,13.110500445775687,3.2413060070201745,1,1,0,1
215,52,12,0,6.518531294446439,1.5151129522360867,1.014,0,14,0,1,0,0,1,1,100,13.32040993385017,2.398024848774078,1,1,0,1
215,53,12,0,6.835101124830544,1.6754037528298795,1.014,0,14,0,1,0,0,1,1,100,11.795189516991378,4.835503499954941,1,1,0,1
215,54,155,0.048,80.056810695678,-30.332483942154795,1.014,0,182,0,1,0,0,1,1,100,138.2290254002437,56.29626021983567,1,1,0,1
216,55,155,25.22,75.92569062113762,-17.625184558797628,1.017,0,182,0,1,0,0,1,1,100,192.14820994320328,74.40838293947748,1,1,0,1
218,56,400,137.4,210.24457448162138,-89.35050645144656,1.05,0,471,0,1,0,0,1,1,100,310.9693802893162,46.72098861541599,1,1,0,1
221,57,400,108.2,191.7787676863372,-12.159400519449264,1.05,0,471,0,1,0,0,1,1,100,509.93214339017874,261.0061482386664,1,1,0,1
222,58,50,-4.96,12.712194084376096,-11.774698610883208,1.05,0,53,0,1,0,0,1,1,100,51.769957828801125,12.839735113084316,1,1,0,1
222,59,50,-4.96,18.292619353532793,-0.477385439630595,1.05,0,53,0,1,0,0,1,1,100,62.42641755845397,3.9950766297988523,1,1,0,1
222,60,50,-4.96,18.942137594521046,-8.784332095365972,1.05,0,53,0,1,0,0,1,1,100,45.9680016245693,4.530006653407735,1,1,0,1
222,61,50,-4.96,18.16942911222577,-0.9579075088724487,1.05,0,53,0,1,0,0,1,1,100,63.215496998745955,6.59859290812166,1,1,0,1
222,62,50,-4.96,20.784664760529996,-7.816814989130943,1.05,0,53,0,1,0,0,1,1,100,60.07142967544497,8.863435909152045,1,1,0,1
222,63,50,-4.96,17.826432816684246,-7.674668566975743,1.05,0,53,0,1,0,0,1,1,100,47.80025007668882,3.4359977091662515,1,1,0,1
223,64,155,31.79,94.76361187919974,-9.799719966482371,1.05,0,182,0,1,0,0,1,1,100,189.83801300125197,71.64376166085712,1,1,0,1
223,65,155,31.79,66.13202033564448,-83.94400562392548,1.05,0,182,0,1,0,0,1,1,100,119.39323887950741,1.4148894896614337,1,1,0,1
223,66,350,71.78,161.51023766258731,34.83964788145386,1.05,0,412,0,1,0,0,1,1,100,393.6808039923199,218.29504487896344,1,1,0,1
301,67,10,0,11.622967209201306,1.1553646847605705,1.035,0,24,0,1,0,0,1,1,100,23.906361998058856,19.93695260585286,1,1,0,1
301,68,10,0,10.757238842081279,-0.8224701723083854,1.035,0,24,0,1,0,0,1,1,100,24.185822400264442,21.008603143384683,1,1,0,1
301,69,76,14.1,30.97678324626759,-23.041829457273703,1.035,0,89,0,1,0,0,1,1,100,84.96963880378753,40.80663363236935,1,1,0,1
301,70,76,14.1,28.282469166442752,-13.645342423347756,1.035,0,89,0,1,0,0,1,1,100,68.08052639514207,1.9852270369231633,1,1,0,1
302,71,10,0,7.40714340424165,-1.561676947865636,1.035,0,24,0,1,0,0,1,1,100,16.994236636906862,13.285368460677564,1,1,0,1
302,72,10,0,10.189786147326231,0.4933833838440478,1.035,0,24,0,1,0,0,1,1,100,24.52143146470189,20.56506784923375,1,1,0,1
302,73,76,7,26.459283324424177,-20.425476071424782,1.035,0,89,0,1,0,0,1,1,100,88.34537905156613,38.724615537673245,1,1,0,1
302,74,76,7,26.631180614233017,-15.49008528678678,1.035,0,89,0,1,0,0,1,1,100,69.97204119861127,3.463837000727665,1,1,0,1
307,75,80,17.2,63.22651154268534,12.424205250106759,1.025,0,118,0,1,0,0,1,1,100,95.4723719926551,23.795922569697723,1,1,0,1
307,76,80,17.2,59.47677928302437,0.2602827027440071,1.025,0,118,0,1,0,0,1,1,100,92.03627210110426,28.15008227829822,1,1,0,1
307,77,80,17.2,44.41776855289936,-14.209267518483102,1.025,0,118,0,1,0,0,1,1,100,85.2749738935381,7.105678215157226,1,1,0,1
313,78,95.1,40.7,81.54389156773686,12.905875314027071,1.02,0,232,0,1,0,0,1,1,100,248.71727993981915,88.5846123762266,1,1,0,1
313,79,95.1,40.7,68.70156601071358,0.8115344680845737,1.02,0,232,0,1,0,0,1,1,100,252.8808997908607,128.78828153226755,1,1,0,1
313,80,95.1,40.7,75.63109259679914,-18.416818723082542,1.02,0,232,0,1,0,0,1,1,100,238.18334394725974,92.46872284104586,1,1,0,1
314,81,0,13.68,165.72902236133814,-108.66584381088614,0.98,0,100,0,1,0,0,1,1,100,0.0,0.0,1,1,0,1
315,82,12,0,4.201037991419434,-1.4033848668448625,1.014,0,14,0,1,0,0,1,1,100,10.58315391987562,3.8042233349382863,1,1,0,1
315,83,12,0,4.9496779091656204,0.30161632820963824,1.014,0,14,0,1,0,0,1,1,100,8.516068821586668,5.442729885407171,1,1,0,1
315,84,12,0,6.324481547344476,-0.7682840016670518,1.014,0,14,0,1,0,0,1,1,100,9.108500671572983,0.5653958884254102,1,1,0,1
315,85,12,0,4.364397079870105,-2.0721129376441247,1.014,0,14,0,1,0,0,1,1,100,9.139961710944771,0.86222129009664,1,1,0,1
315,86,12,0,5.314380477368832,-1.8885104407556348,1.014,0,14,0,1,0,0,1,1,100,9.155146606452762,0.2013118201866746,1,1,0,1
315,87,155,0.048,85.31391378864646,-24.003998742438853,1.014,0,182,0,1,0,0,1,1,100,173.99080124869943,76.20422516304534,1,1,0,1
316,88,155,25.22,89.08461229503155,-62.1943236598745,1.017,0,182,0,1,0,0,1,1,100,185.59349961392581,61.50715650384082,1,1,0,1
318,89,400,137.4,181.19864628650248,-136.0657715518028,1.05,0,471,0,1,0,0,1,1,100,338.7807659059763,263.62325384941437,1,1,0,1
321,90,400,108.2,250.93233575113118,-70.62347960658377,1.05,0,471,0,1,0,0,1,1,100,426.69986970722675,180.92526579741389,1,1,0,1
322,91,50,-4.96,18.432960774749517,-7.5045510407537215,1.05,0,53,0,1,0,0,1,1,100,45.60597574338317,40.81127676758546,1,1,0,1
322,92,50,-4.96,15.799399983882903,-16.56686884714291,1.05,0,53,0,1,0,0,1,1,100,50.64301844220609,16.523791413110853,1,1,0,1
322,93,50,-4.96,17.85590085014701,-15.903783176280562,1.05,0,53,0,1,0,0,1,1,100,59.03191193239763,3.950376841239617,1,1,0,1
322,94,50,-4.96,11.830088531225918,-8.133554051537068,1.05,0,53,0,1,0,0,1,1,100,45.841701556928456,3.2830474292859435,1,1,0,1
322,95,50,-4.96,14.295674826949835,-15.52722991630435,1.05,0,53,0,1,0,0,1,1,100,56.71457667602227,53.94779283557442,1,1,0,1
322,96,50,-4.96,11.733095856755972,-20.107284786738454,1.05,0,53,0,1,0,0,1,1,100,44.45022725965828,2.479827431237129,1,1,0,1
323,97,155,31.79,58.19258679077029,-63.442703993525356,1.05,0,182,0,1,0,0,1,1,100,136.3340795650147,16.103853653580884,1,1,0,1
323,98,155,31.79,73.37847432494164,-35.15013043722138,1.05,0,182,0,1,0,0,1,1,100,185.00287623819895,70.19757535166572,1,1,0,1
323,99,350,71.78,121.34396016597748,-32.3983894882258,1.05,0,412,0,1,0,0,1,1,100,261.1847173329443,227.4446534812377,1,1,0,1
0 / END OF GENERATOR DATA, BEGIN BRANCH DATA
101,102,1,0.003,0.014,0.461,210.0,231.6,240.0,0,0,0,0,1,1,0,1,1
101,103,1,0.055,0.211,0.057,210.0,249.6,264.0,0,0,0,0,1,1,0,1,1
101,105,1,0.022,0.085,0.023,210.0,249.6,264.0,0,0,0,0,1,1,0,1,1
102,104,1,0.033,0.127,0.034,210.0,249.6,264.0,0,0,0,0,1,1,0,1,1
102,106,1,0.05,0.192,0.052,210.0,249.6,264.0,0,0,0,0,1,1,0,1,1
103,109,1,0.031,0.119,0.032,210.0,249.6,264.0,0,0,0,0,1,1,0,1,1
104,109,1,0.027,0.104,0.028,210.0,249.6,264.0,0,0,0,0,1,1,0,1,1
105,110,1,0.023,0.088,0.024,210.0,249.6,264.0,0,0,0,0,1,1,0,1,1
106,110,1,0.014,0.061,2.459,210.0,231.6,240.0,0,0,0,0,1,1,0,1,1
107,108,1,0.016,0.061,0.017,210.0,249.6,264.0,0,0,0,0,1,1,0,1,1
107,203,1,0.042,0.161,0.044,210.0,249.6,264.0,0,0,0,0,1,1,0,1,1
108,109,1,0.043,0.165,0.045,210.0,249.6,264.0,0,0,0,0,1,1,0,1,1
108,110,1,0.043,0.165,0.045,210.0,249.6,264.0,0,0,0,0,1,1,0,1,1
111,113,1,0.006,0.048,0.1,600.0,720.0,750.0,0,0,0,0,1,1,0,1,1
111,114,1,0.005,0.042,0.088,600.0,720.0,750.0,0,0,0,0,1,1,0,1,1
112,113,1,0.006,0.048,0.1,600.0,720.0,750.0,0,0,0,0,1,1,0,1,1
112,123,1,0.012,0.097,0.203,600.0,720.0,750.0,0,0,0,0,1,1,0,1,1
113,123,1,0.011,0.087,0.182,600.0,720.0,750.0,0,0,0,0,1,1,0,1,1
113,215,1,0.01,0.075,0.158,600.0,720.0,750.0,0,0,0,0,1,1,0,1,1
114,116,1,0.005,0.059,0.082,600.0,720.0,750.0,0,0,0,0,1,1,0,1,1
115,116,1,0.002,0.017,0.036,600.0,720.0,750.0,0,0,0,0,1,1,0,1,1
115,121,1,0.006,0.049,0.103,600.0,720.0,750.0,0,0,0,0,1,1,0,1,1
115,121,2,0.006,0.049,0.103,600.0,720.0,750.0,0,0,0,0,1,1,0,1,1
115,124,1,0.007,0.052,0.109,600.0,720.0,750.0,0,0,0,0,1,1,0,1,1
116,117,1,0.003,0.026,0.055,600.0,720.0,750.0,0,0,0,0,1,1,0,1,1
116,119,1,0.003,0.023,0.049,600.0,720.0,750.0,0,0,0,0,1,1,0,1,1
117,118,1,0.002,0.014,0.03,600.0,720.0,750.0,0,0,0,0,1,1,0,1,1
117,122,1,0.014,0.105,0.221,600.0,720.0,750.0,0,0,0,0,1,1,0,1,1
118,121,1,0.003,0.026,0.055,600.0,720.0,750.0,0,0,0,0,1,1,0,1,1
118,121,2,0.003,0.026,0.055,600.0,720.0,750.0,0,0,0,0,1,1,0,1,1
119,120,1,0.005,0.04,0.083,600.0,720.0,750.0,0,0,0,0,1,1,0,1,1
119,120,2,0.005,0.04,0.083,600.0,720.0,750.0,0,0,0,0,1,1,0,1,1
120,123,1,0.003,0.022,0.046,600.0,720.0,750.0,0,0,0,0,1,1,0,1,1
120,123,2,0.003,0.022,0.046,600.0,720.0,750.0,0,0,0,0,1,1,0,1,1
121,122,1,0.009,0.068,0.142,600.0,720.0,750.0,0,0,0,0,1,1,0,1,1
123,217,1,0.01,0.074,0.155,600.0,720.0,750.0,0,0,0,0,1,1,0,1,1
201,202,1,0.003,0.014,0.461,210.0,231.6,240.0,0,0,0,0,1,1,0,1,1
201,203,1,0.055,0.211,0.057,210.0,249.6,264.0,0,0,0,0,1,1,0,1,1
201,205,1,0.022,0.085,0.023,210.0,249.6,264.0,0,0,0,0,1,1,0,1,1
202,204,1,0.033,0.127,0.034,210.0,249.6,264.0,0,0,0,0,1,1,0,1,1
202,206,1,0.05,0.192,0.052,210.0,249.6,264.0,0,0,0,0,1,1,0,1,1
203,209,1,0.031,0.119,0.032,210.0,249.6,264.0,0,0,0,0,1,1,0,1,1
204,209,1,0.027,0.104,0.028,210.0,249.6,264.0,0,0,0,0,1,1,0,1,1
205,210,1,0.023,0.088,0.024,210.0,249.6,264.0,0,0,0,0,1,1,0,1,1
206,210,1,0.014,0.061,2.459,210.0,231.6,240.0,0,0,0,0,1,1,0,1,1
207,208,1,0.016,0.061,0.017,210.0,249.6,264.0,0,0,0,0,1,1,0,1,1
208,209,1,0.043,0.165,0.045,210.0,249.6,264.0,0,0,0,0,1,1,0,1,1
208,210,1,0.043,0.165,0.045,210.0,249.6,264.0,0,0,0,0,1,1,0,1,1
211,213,1,0.006,0.048,0.1,600.0,720.0,750.0,0,0,0,0,1,1,0,1,1
211,214,1,0.005,0.042,0.088,600.0,720.0,750.0,0,0,0,0,1,1,0,1,1
212,213,1,0.006,0.048,0.1,600.0,720.0,750.0,0,0,0,0,1,1,0,1,1
212,223,1,0.012,0.097,0.203,600.0,720.0,750.0,0,0,0,0,1,1,0,1,1
213,223,1,0.011,0.087,0.182,600.0,720.0,750.0,0,0,0,0,1,1,0,1,1
214,216,1,0.005,0.059,0.082,600.0,720.0,750.0,0,0,0,0,1,1,0,1,1
215,216,1,0.002,0.017,0.036,600.0,720.0,750.0,0,0,0,0,1,1,0,1,1
215,221,1,0.006,0.049,0.103,600.0,720.0,750.0,0,0,0,0,1,1,0,1,1
215,221,2,0.006,0.049,0.103,600.0,720.0,750.0,0,0,0,0,1,1,0,1,1
215,224,1,0.007,0.052,0.109,600.0,720.0,750.0,0,0,0,0,1,1,0,1,1
216,217,1,0.003,0.026,0.055,600.0,720.0,750.0,0,0,0,0,1,1,0,1,1
216,219,1,0.003,0.023,0.049,600.0,720.0,750.0,0,0,0,0,1,1,0,1,1
217,218,1,0.002,0.014,0.03,600.0,720.0,750.0,0,0,0,0,1,1,0,1,1
217,222,1,0.014,0.105,0.221,600.0,720.0,750.0,0,0,0,0,1,1,0,1,1
218,221,1,0.003,0.026,0.055,600.0,720.0,750.0,0,0,0,0,1,1,0,1,1
218,221,2,0.003,0.026,0.055,600.0,720.0,750.0,0,0,0,0,1,1,0,1,1
219,220,1,0.005,0.04,0.083,600.0,720.0,750.0,0,0,0,0,1,1,0,1,1
219,220,2,0.005,0.04,0.083,600.0,720.0,750.0,0,0,0,0,1,1,0,1,1
220,223,1,0.003,0.022,0.046,600.0,720.0,750.0,0,0,0,0,1,1,0,1,1
220,223,2,0.003,0.022,0.046,600.0,720.0,750.0,0,0,0,0,1,1,0,1,1
221,222,1,0.009,0.068,0.142,600.0,720.0,750.0,0,0,0,0,1,1,0,1,1
301,302,1,0.003,0.014,0.461,210.0,231.6,240.0,0,0,0,0,1,1,0,1,1
301,303,1,0.055,0.211,0.057,210.0,249.6,264.0,0,0,0,0,1,1,0,1,1
301,305,1,0.022,0.085,0.023,210.0,249.6,264.0,0,0,0,0,1,1,0,1,1
302,304,1,0.033,0.127,0.034,210.0,249.6,264.0,0,0,0,0,1,1,0,1,1
302,306,1,0.05,0.192,0.052,210.0,249.6,264.0,0,0,0,0,1,1,0,1,1
303,309,1,0.031,0.119,0.032,210.0,249.6,264.0,0,0,0,0,1,1,0,1,1
304,309,1,0.027,0.104,0.028,210.0,249.6,264.0,0,0,0,0,1,1,0,1,1
305,310,1,0.023,0.088,0.024,210.0,249.6,264.0,0,0,0,0,1,1,0,1,1
306,310,1,0.014,0.061,2.459,210.0,231.6,240.0,0,0,0,0,1,1,0,1,1
307,308,1,0.016,0.061,0.017,210.0,249.6,264.0,0,0,0,0,1,1,0,1,1
308,309,1,0.043,0.165,0.045,210.0,249.6,264.0,0,0,0,0,1,1,0,1,1
308,310,1,0.043,0.165,0.045,210.0,249.6,264.0,0,0,0,0,1,1,0,1,1
311,313,1,0.006,0.048,0.1,600.0,720.0,750.0,0,0,0,0,1,1,0,1,1
311,314,1,0.005,0.042,0.088,600.0,720.0,750.0,0,0,0,0,1,1,0,1,1
312,313,1,0.006,0.048,0.1,600.0,720.0,750.0,0,0,0,0,1,1,0,1,1
312,323,1,0.012,0.097,0.203,600.0,720.0,750.0,0,0,0,0,1,1,0,1,1
313,323,1,0.011,0.087,0.182,600.0,720.0,750.0,0,0,0,0,1,1,0,1,1
314,316,1,0.005,0.059,0.082,600.0,720.0,750.0,0,0,0,0,1,1,0,1,1
315,316,1,0.002,0.017,0.036,600.0,720.0,750.0,0,0,0,0,1,1,0,1,1
315,321,1,0.006,0.049,0.103,600.0,720.0,750.0,0,0,0,0,1,1,0,1,1
315,321,2,0.006,0.049,0.103,600.0,720.0,750.0,0,0,0,0,1,1,0,1,1
315,324,1,0.007,0.052,0.109,600.0,720.0,750.0,0,0,0,0,1,1,0,1,1
316,317,1,0.003,0.026,0.055,600.0,720.0,750.0,0,0,0,0,1,1,0,1,1
316,319,1,0.003,0.023,0.049,600.0,720.0,750.0,0,0,0,0,1,1,0,1,1
317,318,1,0.002,0.014,0.03,600.0,720.0,750.0,0,0,0,0,1,1,0,1,1
317,322,1,0.014,0.105,0.221,600.0,720.0,750.0,0,0,0,0,1,1,0,1,1
318,223,1,0.013,0.104,0.218,600.0,720.0,750.0,0,0,0,0,1,1,0,1,1
318,321,1,0.003,0.026,0.055,600.0,720.0,750.0,0,0,0,0,1,1,0,1,1
318,321,2,0.003,0.026,0.055,600.0,720.0,750.0,0,0,0,0,1,1,0,1,1
319,320,1,0.005,0.04,0.083,600.0,720.0,750.0,0,0,0,0,1,1,0,1,1
319,320,2,0.005,0.04,0.083,600.0,720.0,750.0,0,0,0,0,1,1,0,1,1
320,323,1,0.003,0.022,0.046,600.0,720.0,750.0,0,0,0,0,1,1,0,1,1
320,323,2,0.003,0.022,0.046,600.0,720.0,750.0,0,0,0,0,1,1,0,1,1
321,322,1,0.009,0.068,0.142,600.0,720.0,750.0,0,0,0,0,1,1,0,1,1
323,325,1,0,0.009,0,866.4,1071.6,1071.6,0,0,0,0,1,1,0,1,1
0 / END OF BRANCH DATA, BEGIN TRANSFORMER DATA
  103 ,  124 , 0,  1 , 1, 1, 1, 0, 0, 2, '            ',  1 , 1, 1
   0.002000 ,  0.084000 ,  100.000000
   1.015000 , 0,  0.000000 ,  400.000000 ,  510.000000 ,  600.000000 , 0, 0,  1.10 ,  0.90 ,  1.10 ,  0.90 , 33, 0, 0, 0
   1.000000, 0
  109 ,  111 , 0,  1 , 1, 1, 1, 0, 0, 2, '            ',  1 , 1, 1
   0.002000 ,  0.084000 ,  100.000000
   1.030000 , 0,  0.000000 ,  400.000000 ,  510.000000 ,  600.000000 , 0, 0,  1.10 ,  0.90 ,  1.10 ,  0.90 , 33, 0, 0, 0
   1.000000, 0
  109 ,  112 , 0,  1 , 1, 1, 1, 0, 0, 2, '            ',  1 , 1, 1
   0.002000 ,  0.084000 ,  100.000000
   1.030000 , 0,  0.000000 ,  400.000000 ,  510.000000 ,  600.000000 , 0, 0,  1.10 ,  0.90 ,  1.10 ,  0.90 , 33, 0, 0, 0
   1.000000, 0
  110 ,  111 , 0,  1 , 1, 1, 1, 0, 0, 2, '            ',  1 , 1, 1
   0.002000 ,  0.084000 ,  100.000000
   1.015000 , 0,  0.000000 ,  400.000000 ,  510.000000 ,  600.000000 , 0, 0,  1.10 ,  0.90 ,  1.10 ,  0.90 , 33, 0, 0, 0
   1.000000, 0
  110 ,  112 , 0,  1 , 1, 1, 1, 0, 0, 2, '            ',  1 , 1, 1
   0.002000 ,  0.084000 ,  100.000000
   1.015000 , 0,  0.000000 ,  400.000000 ,  510.000000 ,  600.000000 , 0, 0,  1.10 ,  0.90 ,  1.10 ,  0.90 , 33, 0, 0, 0
   1.000000, 0
  203 ,  224 , 0,  1 , 1, 1, 1, 0, 0, 2, '            ',  1 , 1, 1
   0.002000 ,  0.084000 ,  100.000000
   1.015000 , 0,  0.000000 ,  400.000000 ,  510.000000 ,  600.000000 , 0, 0,  1.10 ,  0.90 ,  1.10 ,  0.90 , 33, 0, 0, 0
   1.000000, 0
  209 ,  211 , 0,  1 , 1, 1, 1, 0, 0, 2, '            ',  1 , 1, 1
   0.002000 ,  0.084000 ,  100.000000
   1.030000 , 0,  0.000000 ,  400.000000 ,  510.000000 ,  600.000000 , 0, 0,  1.10 ,  0.90 ,  1.10 ,  0.90 , 33, 0, 0, 0
   1.000000, 0
  209 ,  212 , 0,  1 , 1, 1, 1, 0, 0, 2, '            ',  1 , 1, 1
   0.002000 ,  0.084000 ,  100.000000
   1.030000 , 0,  0.000000 ,  400.000000 ,  510.000000 ,  600.000000 , 0, 0,  1.10 ,  0.90 ,  1.10 ,  0.90 , 33, 0, 0, 0
   1.000000, 0
  210 ,  211 , 0,  1 , 1, 1, 1, 0, 0, 2, '            ',  1 , 1, 1
   0.002000 ,  0.084000 ,  100.000000
   1.015000 , 0,  0.000000 ,  400.000000 ,  510.000000 ,  600.000000 , 0, 0,  1.10 ,  0.90 ,  1.10 ,  0.90 , 33, 0, 0, 0
   1.000000, 0
  210 ,  212 , 0,  1 , 1, 1, 1, 0, 0, 2, '            ',  1 , 1, 1
   0.002000 ,  0.084000 ,  100.000000
   1.015000 , 0,  0.000000 ,  400.000000 ,  510.000000 ,  600.000000 , 0, 0,  1.10 ,  0.90 ,  1.10 ,  0.90 , 33, 0, 0, 0
   1.000000, 0
  303 ,  324 , 0,  1 , 1, 1, 1, 0, 0, 2, '            ',  1 , 1, 1
   0.002000 ,  0.084000 ,  100.000000
   1.015000 , 0,  0.000000 ,  400.000000 ,  510.000000 ,  600.000000 , 0, 0,  1.10 ,  0.90 ,  1.10 ,  0.90 , 33, 0, 0, 0
   1.000000, 0
  309 ,  311 , 0,  1 , 1, 1, 1, 0, 0, 2, '            ',  1 , 1, 1
   0.002000 ,  0.084000 ,  100.000000
   1.030000 , 0,  0.000000 ,  400.000000 ,  510.000000 ,  600.000000 , 0, 0,  1.10 ,  0.90 ,  1.10 ,  0.90 , 33, 0, 0, 0
   1.000000, 0
  309 ,  312 , 0,  1 , 1, 1, 1, 0, 0, 2, '            ',  1 , 1, 1
   0.002000 ,  0.084000 ,  100.000000
   1.030000 , 0,  0.000000 ,  400.000000 ,  510.000000 ,  600.000000 , 0, 0,  1.10 ,  0.90 ,  1.10 ,  0.90 , 33, 0, 0, 0
   1.000000, 0
  310 ,  311 , 0,  1 , 1, 1, 1, 0, 0, 2, '            ',  1 , 1, 1
   0.002000 ,  0.084000 ,  100.000000
   1.015000 , 0,  0.000000 ,  400.000000 ,  510.000000 ,  600.000000 , 0, 0,  1.10 ,  0.90 ,  1.10 ,  0.90 , 33, 0, 0, 0
   1.000000, 0
  310 ,  312 , 0,  1 , 1, 1, 1, 0, 0, 2, '            ',  1 , 1, 1
   0.002000 ,  0.084000 ,  100.000000
   1.015000 , 0,  0.000000 ,  400.000000 ,  510.000000 ,  600.000000 , 0, 0,  1.10 ,  0.90 ,  1.10 ,  0.90 , 33, 0, 0, 0
   1.000000, 0
0 / END OF TRANSFORMER DATA, BEGIN AREA DATA
0 / END OF AREA DATA, BEGIN TWO-TERMINAL DC DATA
0 / END OF TWO-TERMINAL DC DATA, BEGIN VSC DC LINE DATA
0 / END OF VSC DC LINE DATA, BEGIN SWITCHED SHUNT DATA
0 / END OF SWITCHED SHUNT DATA, BEGIN IMPEDANCE CORRECTION DATA
0 / END OF IMPEDANCE CORRECTION DATA, BEGIN MULTI-TERMINAL DC DATA
0 / END OF MULTI-TERMINAL DC DATA, BEGIN MULTI-SECTION LINE DATA
0 / END OF MULTI-SECTION LINE DATA, BEGIN ZONE DATA
0 / END OF ZONE DATA, BEGIN INTER-AREA TRANSFER DATA
0 / END OF INTER-AREA TRANSFER DATA, BEGIN OWNER DATA
0 / END OF OWNER DATA, BEGIN FACTS CONTROL DEVICE DATA
0 / END OF FACTS CONTROL DEVICE DATA
0 / END OF SWITCHED SHUNT DATA, BEGIN GNE DATA
0 / END OF GNE DATA, BEGIN INDUCTION MACHINE DATA
0 / END OF INDUCTION MACHINE DATA
Q 
